<?xml version="1.0" encoding="UTF-8"?>

<!-- generated on 2024-11-03 18:51:16 by Eclipse SUMO duarouter Version 1.19.0
<configuration xmlns:xsi="http://www.w3.org/2001/XMLSchema-instance" xsi:noNamespaceSchemaLocation="http://sumo.dlr.de/xsd/duarouterConfiguration.xsd">

    <input>
        <net-file value="data/correct_Alaskan_offset_signal_Seattle_network_reformed_connections2.net.xml"/>
        <route-files value="logic/files/trips.rou.xml"/>
    </input>

    <output>
        <output-file value="logic/files/loopRoutes.rou.xml"/>
        <route-length value="true"/>
    </output>

</configuration>
-->

<routes xmlns:xsi="http://www.w3.org/2001/XMLSchema-instance" xsi:noNamespaceSchemaLocation="http://sumo.dlr.de/xsd/routes_file.xsd">
    <vehicle id="denny_e1:denny_e2" depart="1.00" departPos="-5.00" arrivalPos="-5.00">
        <route edges="332473706#0 332473707#0 332473707#2 332200727#0 332200727#2 144113316#0 144113316#0.16 144113316#1 378845730 332200726 332200728#0 332200728#1 332597972#0 332597972#1 332597972#2 332597972#3 332200725#0 332200725#1 332200725#2 332200722 242288219#0 332200724#0 524878319#0 524878319#3 332200723 548492231 490208227#0 338863386#0 338863385#0 338863385#3 548492030#0 548492030#2 620698424 428087125 428087113#0" routeLength="944.71"/>
    </vehicle>
    <vehicle id="denny_e1:denny_e3" depart="2.00" departPos="-5.00" arrivalPos="-5.00">
        <route edges="332473706#0 332473707#0 332473707#2 332200727#0 332200727#2 144113316#0 144113316#0.16 144113316#1 378845730 332200726 332200728#0 332200728#1 332597972#0 332597972#1 332597972#2 332597972#3 332200725#0 332200725#1 332200725#2 332200722 242288219#0 332200724#0 524878319#0 524878319#3 332200723 548492231 490208227#0 338863386#0 338863385#0 338863385#3 548492030#0 548492030#2 620698424 428087125 428087113#0 563752576#0 360390215 360390227 235037493 360390221#0 182891397#0 436163947#1" routeLength="1393.90"/>
    </vehicle>
    <vehicle id="denny_e1:denny_w1" depart="3.00" departPos="-5.00" arrivalPos="5.00">
        <route edges="332473706#0 332473707#0 332473707#2 332200727#0 332200727#2 144113316#0 144113316#0.16 144113316#1 378845730 332200726 332200728#0 332200728#1 332597972#0 332597972#1 332597972#2 332597972#3 332200725#0 332200725#1 332200725#2 332200722 242288219#0 332200724#0 524878319#0 524878319#3 332200723 548492231 490208227#0 338863386#0 338863385#0 338863385#3 548492030#0 548492030#2 620698424 428087125 428087113#0 563752576#0 360390215 360390227 235037493 360390221#0 182891397#0 436163947#1 393047810 -460421473#2 -6430733#0 -460423542#0 -436163947#2" routeLength="1666.13"/>
    </vehicle>
    <vehicle id="denny_e1:denny_w2" depart="4.00" departPos="-5.00" arrivalPos="5.00">
        <route edges="332473706#0 332473707#0 332473707#2 332200727#0 332200727#2 144113316#0 144113316#0.16 144113316#1 378845730 332200726 332200728#0 332200728#1 332597972#0 332597972#1 332597972#2 332597972#3 332200725#0 332200725#1 332200725#2 332200722 242288219#0 332200724#0 524878319#0 524878319#3 332200723 548492231 490208227#0 338863386#0 338863385#0 338863385#3 548492030#0 548492030#2 620698424 -240455064#5 -240455064#3 -240455064#2 gneE15 -240455065#1 -240455065#1.30 -428087113#1" routeLength="1023.00"/>
    </vehicle>
    <vehicle id="denny_e1:denny_w3" depart="5.00" departPos="-5.00" arrivalPos="5.00">
        <route edges="332473706#0 332473707#0 332473707#2 332200727#0 239699002#1 -332473707#1 -332473706#1" routeLength="262.19"/>
    </vehicle>
    <vehicle id="denny_e1:yesler_e1" depart="6.00" departPos="-5.00" arrivalPos="5.00">
        <route edges="332473706#0 8111062#0 621396742 671432783 22760466#1 22760466#2 22760466#3 22760466#4 22760466#4.54 351500651#0 351500651#1 -206883227#6 -206883227#5 -206883227#5.24 -206883227#4 -206883227#3 -206883227#1 -206883227#1.42 -6509620#3 -6509620#2 gneE481 gneE483 -371427803#6 -371427803#3 -371427803#2 -371427803#1 -371427803#0 -635477814 519441950#0 519441950#0.45 519441952#0 519441947#0 519441953#0 -428246215#1 gneE147 gneE146 gneE144 gneE43 gneE50" routeLength="2241.36"/>
    </vehicle>
    <vehicle id="denny_e1:yesler_e2" depart="7.00" departPos="-5.00" arrivalPos="5.00">
        <route edges="332473706#0 8111062#0 621396742 671432783 22760466#1 22760466#2 22760466#3 22760466#4 22760466#4.54 215869727#0 215869727#1 215869727#2 621378265#0 617436201#0 617436202#0 617436202#0.84 560116317#1 428243144#0 428243133#0 6450457#0 6450457#2 428244385#0 484849329#0 401075686#0 428244383#0 428244384#0 428243313#0 428243313#1 428243313#2 428243313#3 428243309#0 428243312#0 428243315#1 428243311#0 428243311#1 gneE238 428230582#2 428230582#2.39 gneE497 gneE498 gneE350 gneE351 gneE121 gneE355" routeLength="2571.42"/>
    </vehicle>
    <vehicle id="denny_e1:yesler_w1" depart="8.00" departPos="-5.00" arrivalPos="-5.00">
        <route edges="332473706#0 332473707#0 332473707#2 332200727#0 332200727#2 144113316#0 144113316#0.16 144113316#1 378845730 332200726 458058811#0 458058811#0.84 531902715 8045965 458058810 458063753#0 458063753#1 512249717#0 293623336#0 293623336#2 293623336#3 293623336#4 512250032#1 512250032#2 584910546#0 428248101#0 465797042#0 465797042#0.53 620595195#0 620595195#0.78 524888104#0 524888104#0.90 617433067#0 617433067#0.80 617433069#0 6508961#0 6508961#3 gneE587 679636490#0.55 679636490#0.55.58 gneE222 450919737#1 450919737#1.40 gneE192 240874272 240874272.52 gneE527 gneE528 51817330#5 -460419023#1 -333374597 -6344598#2 -6344598#1 -6344598#0 486841226 6456588#1 gneE354" routeLength="2949.53"/>
    </vehicle>
    <vehicle id="denny_e1:yesler_w2" depart="9.00" departPos="-5.00" arrivalPos="-5.00">
        <route edges="332473706#0 8111062#0 621396742 671432783 22760466#1 22760466#2 22760466#3 22760466#4 22760466#4.54 215869727#0 215869727#1 215869727#2 621378265#0 617436201#0 617436202#0 617436202#0.84 560116317#1 500805370#0 240455510#1 -428243129#2 -105493444#4 -105493444#2 -105493444#1 -354215257#3 -354215257#1 -462696736#2 -534545516#1 -462696717#1 -610573957#1 620762216#1 158943668#1 gneE244 gneE244.54 6396663#0 gneE79 gneE49" routeLength="2051.49"/>
    </vehicle>
    <vehicle id="denny_e1:boren_se1" depart="10.00" departPos="-5.00" arrivalPos="-5.00">
        <route edges="332473706#0 332473707#0 332473707#2 332200727#0 332200727#2 144113316#0 144113316#0.16 144113316#1 378845730 332200726 332200728#0 332200728#1 332597972#0 332597972#1 332597972#2 332597972#3 332200725#0 332200725#1 332200725#2 332200722 242288219#0 332200724#0 524878319#0 524878319#3 332200723 548492231 490208227#0 338863386#0 338863385#0 338863385#3 548492030#0 548492030#2 620698424 -240455064#5 -240455064#3 -240455064#2 gneE15 gneE32 gneE33 240455063#2 240455063#3 240455063#4 240455063#5" routeLength="1074.70"/>
    </vehicle>
    <vehicle id="denny_e1:boren_nw3" depart="11.00" departPos="-5.00" arrivalPos="5.00">
        <route edges="332473706#0 332473707#0 332473707#2 332200727#0 332200727#2 144113316#0 144113316#0.16 144113316#1 378845730 332200726 332200728#0 332200728#1 332597972#0 332597972#1 332597972#2 332597972#3 332200725#0 332200725#1 332200725#2 332200722 242288219#0 332200724#0 524878319#0 524878319#3 332200723 548492231 490208227#0 338863386#0 338863385#0 338863385#3 548492030#0 548492030#2 620698424 428087125 428087113#0 563752576#0 360390215 gneE754 gneE750 6432745#4 500805367#0 -240455063#5" routeLength="1191.17"/>
    </vehicle>
    <vehicle id="denny_e1:boren_se2" depart="12.00" departPos="-5.00" arrivalPos="5.00">
        <route edges="332473706#0 332473707#0 332473707#2 332200727#0 332200727#2 144113316#0 144113316#0.16 144113316#1 378845730 332200726 332200728#0 332200728#1 332597972#0 332597972#1 332597972#2 332597972#3 332200725#0 332200725#1 332200725#2 332200722 242288219#0 332200724#0 524878319#0 524878319#3 332200723 548492231 490208227#0 338863386#0 338863385#0 338863385#3 548492030#0 548492030#2 620698424 -240455064#5 -240455064#3 -240455064#2 gneE15 gneE32 gneE33 240455063#2 240455063#3 240455063#4 240455063#5 240457596#1 240457597#0 428237358#0 428237322#0 428237329#0 428237339#0 428237354#0 37551504 428230978#0 428231010#0" routeLength="1449.48"/>
    </vehicle>
    <vehicle id="denny_e1:boren_nw2" depart="13.00" departPos="-5.00" arrivalPos="-5.00">
        <route edges="332473706#0 332473707#0 332473707#2 332200727#0 332200727#2 144113316#0 144113316#0.16 144113316#1 378845730 332200726 332200728#0 332200728#1 332597972#0 332597972#1 332597972#2 332597972#3 332200725#0 332200725#1 332200725#2 332200722 242288219#0 332200724#0 524878319#0 524878319#3 332200723 548492231 490208227#0 338863386#0 338863385#0 338863385#3 548492030#0 548492030#2 620698424 -240455064#5 -240455064#3 -240455064#2 gneE15 gneE32 gneE33 240455063#2 240455063#3 240455063#4 240455063#5 240457596#1 240457597#0 428237358#0 428237322#0 428237329#0 428237339#0 428237354#0 37551504 428230978#0 428231010#0 532416980 532416974 -532416974 -532416980 -428231010#1" routeLength="1707.09"/>
    </vehicle>
    <vehicle id="denny_e1:boren_se3" depart="14.00" departPos="-5.00" arrivalPos="-5.00">
        <route edges="332473706#0 332473707#0 332473707#2 332200727#0 332200727#2 144113316#0 144113316#0.16 144113316#1 378845730 332200726 332200728#0 332200728#1 332597972#0 332597972#1 332597972#2 332597972#3 332200725#0 332200725#1 332200725#2 332200722 242288219#0 332200724#0 524878319#0 524878319#3 332200723 548492231 490208227#0 338863386#0 338863385#0 338863385#3 548492030#0 548492030#2 620698424 -240455064#5 -240455064#3 -240455064#2 gneE15 gneE32 gneE33 240455063#2 240455063#3 240455063#4 240455063#5 240457596#1 240457597#0 428237358#0 428237322#0 428237329#0 428237339#0 428237354#0 37551504 428230978#0 428231010#0 532416980 332187358 532416982 gneE544 gneE549 586787209#0 586787209#1 428230982#0" routeLength="1841.29"/>
    </vehicle>
    <vehicle id="denny_e1:boren_nw1" depart="15.00" departPos="-5.00" arrivalPos="5.00">
        <route edges="332473706#0 332473707#0 332473707#2 332200727#0 332200727#2 144113316#0 144113316#0.16 144113316#1 378845730 332200726 458058811#0 458058811#0.84 531902715 8045965 458058810 458063753#0 458063753#1 512249717#0 293623336#0 293623336#2 293623336#3 293623336#4 512250032#1 512250032#2 584910546#0 428248101#0 465797042#0 465797042#0.53 620595195#0 620595195#0.78 524888104#0 524888104#0.90 617433067#0 617433067#0.80 617433069#0 6508961#0 240874276#0 240874276#3 13726935 gneE517 gneE517.55 gneE519 428227905#3 gneE534 gneE536 428227882#0 428227882#1 gneE560 gneE561 428227850#0 428227850#1 428227899#0 428227865#1 428227818 428227838 428227833#0 -428230982#0" routeLength="2114.85"/>
    </vehicle>
    <vehicle id="denny_e1:pine_e1" depart="16.00" departPos="-5.00" arrivalPos="5.00">
        <route edges="332473706#0 332473707#0 332473707#2 332200727#0 332200727#2 144113316#0 144113316#0.16 144113316#1 378845730 332200726 332200728#0 332200728#1 332597972#0 332597972#1 332597972#2 332597972#3 332200725#0 332200725#1 332200725#2 332200722 242288219#0 332200724#0 524878319#0 524878319#3 332200723 548492231 490208227#0 338863386#0 338863385#0 338863385#3 548492030#0 548492030#2 620698424 -240455064#5 -240455064#3 -240455064#2 gneE15 gneE32 gneE33 240455063#2 240455063#3 240455063#4 240455063#5 240457596#1 240457597#0 428237358#0 428237322#0 428237329#0 428237339#0 -37551507#1" routeLength="1399.51"/>
    </vehicle>
    <vehicle id="denny_e1:pine_w2" depart="17.00" departPos="-5.00" arrivalPos="-5.00">
        <route edges="332473706#0 332473707#0 332473707#2 332200727#0 332200727#2 144113316#0 144113316#0.16 144113316#1 378845730 332200726 332200728#0 332200728#1 332597972#0 332597972#1 332597972#2 332597972#3 332200725#0 332200725#1 332200725#2 332200722 242288219#0 332200724#0 524878319#0 524878319#3 332200723 548492231 490208227#0 338863386#0 338863385#0 338863385#3 548492030#0 548492030#2 620698424 -240455064#5 -240455064#3 -240455064#2 gneE15 gneE32 gneE33 240455063#2 240455063#3 240455063#4 240455063#5 240457596#1 240457597#0 428237358#0 428237322#0 428237329#0 428237339#0 -37551507#1 -492812737 492812737 37551507#0" routeLength="1476.61"/>
    </vehicle>
    <vehicle id="denny_e1:pine_w1" depart="18.00" departPos="-5.00" arrivalPos="5.00">
        <route edges="332473706#0 332473707#0 332473707#2 332200727#0 332200727#2 144113316#0 144113316#0.16 144113316#1 378845730 332200726 332200728#0 332200728#1 332597972#0 332597972#1 332597972#2 332597972#3 332200725#0 332200725#1 332200725#2 332200722 242288219#0 332200724#0 524878319#0 524878319#3 332200723 548492231 490208227#0 338863386#0 338863385#0 338863385#3 548492030#0 548492030#2 620698424 428087125 428087113#0 563752576#0 360390215 360390227 235037493 360390221#0 182891397#0 436163947#1 393047810 393047811 6474762#0 6474762#1 6474762#2 6474762#3 6474762#4 658284000 -428246437 -265352910 -332601013#0 gneE582 -428246441#1" routeLength="2070.42"/>
    </vehicle>
    <vehicle id="denny_e1:pine_e2" depart="19.00" departPos="-5.00" arrivalPos="5.00">
        <route edges="332473706#0 332473707#0 332473707#2 332200727#0 332200727#2 144113316#0 144113316#0.16 144113316#1 378845730 332200726 332200728#0 332200728#1 332597972#0 332597972#1 332597972#2 332597972#3 332200725#0 332200725#1 332200725#2 332200722 242288219#0 332200724#0 524878319#0 524878319#3 332200723 548492231 490208227#0 338863386#0 338863385#0 338863385#3 548492030#0 548492030#2 620698424 -240455064#5 -240455064#3 -240455064#2 gneE15 gneE32 gneE33 240455063#2 240455063#3 240455063#4 240455063#5 240457596#1 240457597#0 428237358#0 428237322#0 428237329#0 428237339#0 -37551507#1 -492812737 -8111111#3 -8111111#2 -8111111#1 -8111111#0 -460423539#2 6415868#0 6415868#1 6415868#2 6415868#3 6415868#5 6415868#6 6415868#7 428246441#0 428246441#1" routeLength="1885.60"/>
    </vehicle>
    <vehicle id="denny_e1:pine_w3" depart="20.00" departPos="-5.00" arrivalPos="-5.00">
        <route edges="332473706#0 332473707#0 332473707#2 332200727#0 332200727#2 144113316#0 144113316#0.16 144113316#1 378845730 332200726 458058811#0 458058811#0.84 531902715 8045965 458058810 458063753#0 458063753#1 512249717#0 293623336#0 293623336#2 293623336#3 293623336#4 512250032#1 512250032#2 584910546#0 428248101#0 465797042#0 465797042#0.53 8111110#0 8111110#0.68" routeLength="1206.78"/>
    </vehicle>
    <vehicle id="denny_e1:stewart_w1" depart="21.00" departPos="-5.00" arrivalPos="-5.00">
        <route edges="332473706#0 332473707#0 332473707#2 332200727#0 332200727#2 144113316#0 144113316#0.16 144113316#1 378845730 332200726 458058811#0 458058811#0.84 531902715 8045965 458058810 458063753#0 458063753#1 512249717#0 293623336#0 293623336#2 293623336#3 293623336#4 512250032#1 512250032#2 584910546#0 371267131#0 371267131#2" routeLength="1074.47"/>
    </vehicle>
    <vehicle id="denny_e1:seven_n1" depart="22.00" departPos="-5.00" arrivalPos="-5.00">
        <route edges="332473706#0 332473707#0 332473707#2 332200727#0 332200727#2 144113316#0 144113316#0.16 144113316#1 378845730 332200726 332200728#0 332200728#1 332597972#0 332597972#1 332597972#2 332597972#3 332200725#0 332200725#1 332200725#2 332200722 4794449#1 4794449#3 4794449#4 4794449#4.96 52840083 52840083.93" routeLength="783.50"/>
    </vehicle>
    <vehicle id="denny_e1:seven_s1" depart="23.00" departPos="-5.00" arrivalPos="5.00">
        <route edges="332473706#0 332473707#0 332473707#2 332473705 370823234 144113314#0 144113314#3 428247165 428247162 235036846#0 235036846#1 6444537 531925175#0 531925175#1 428342323#0 428342323#1 170178099#0 170178099#2 170178099#3 264828727#0 264828727#1 367069126" routeLength="687.27"/>
    </vehicle>
    <vehicle id="denny_e1:first_se1" depart="24.00" departPos="-5.00" arrivalPos="5.00">
        <route edges="332473706#0 8111062#0 621396742 239801864#0 239801864#1 -351500650#7 -351500650#6 -351500650#5 -351500650#4" routeLength="366.65"/>
    </vehicle>
    <vehicle id="denny_e1:first_nw3" depart="25.00" departPos="-5.00" arrivalPos="-5.00">
        <route edges="332473706#0 8111062#0 621396742 671432783 22760466#1 22760466#2 22760466#3 22760466#4 22760466#4.54 351500651#0 351500651#1 351500650#0 351500650#1 351500650#2 351500650#3 351500650#4" routeLength="622.03"/>
    </vehicle>
    <vehicle id="denny_e1:first_se2" depart="26.00" departPos="-5.00" arrivalPos="5.00">
        <route edges="332473706#0 8111062#0 621396742 671432783 22760466#1 22760466#2 22760466#3 22760466#4 22760466#4.54 215869727#0 215869727#1 215869727#2 621378265#0 617436201#0 617436202#0 617436202#0.84 560116317#1 500805370#0 240455510#1 -428243129#2" routeLength="1153.86"/>
    </vehicle>
    <vehicle id="denny_e1:first_nw2" depart="27.00" departPos="-5.00" arrivalPos="-5.00">
        <route edges="332473706#0 8111062#0 621396742 671432783 22760466#1 22760466#2 22760466#3 22760466#4 22760466#4.54 215869727#0 215869727#1 215869727#2 621378265#0 617436201#0 617436202#0 617436202#0.84 560116317#1 428243144#0 428243133#0 240704055#0 340164240 428243129#0" routeLength="1217.79"/>
    </vehicle>
    <vehicle id="denny_e1:first_se3" depart="28.00" departPos="-5.00" arrivalPos="5.00">
        <route edges="332473706#0 8111062#0 621396742 671432783 22760466#1 22760466#2 22760466#3 22760466#4 22760466#4.54 215869727#0 215869727#1 215869727#2 621378265#0 617436201#0 617436202#0 617436202#0.84 560116317#1 500805370#0 240455510#1 -428243129#2 -105493444#4 -105493444#2 -105493444#1 -354215257#3 -354215257#1 -462696736#2 -534545516#1 -462696717#1 -610573957#1" routeLength="1689.74"/>
    </vehicle>
    <vehicle id="denny_e1:first_nw1" depart="29.00" departPos="-5.00" arrivalPos="-5.00">
        <route edges="332473706#0 8111062#0 621396742 671432783 22760466#1 22760466#2 22760466#3 22760466#4 22760466#4.54 215869727#0 215869727#1 215869727#2 621378265#0 617436201#0 617436202#0 617436202#0.84 560116317#1 428243144#0 428243133#0 6450457#0 6450457#2 428244385#0 484849329#0 401075686#0 428244383#0 428244384#0 428243313#0 428243313#1 428243313#2 428243313#3 428243309#0 428243312#0 428243315#1 gneE272 gneE272.65 gneE283 gneE284 -620762216#1 610573957#1" routeLength="2090.34"/>
    </vehicle>
    <vehicle id="denny_e2:denny_e1" depart="30.00" departPos="-5.00" arrivalPos="-5.00">
        <route edges="428087113#0 240455065#1 -gneE15 240455064#2 240455064#3 240455064#4 -620698424 -548492030#2 -548492030#1 -338863385#4 -338863385#2 -338863386#2 -490208227#1 -537700723#1 -332200723 -524878319#3 -524878319#1 -332200724#2 -242288219#1 -332200722 -332200725#2 -332200725#1 -332200725#0 -332597972#3 -332597972#2 -332597972#1 -332597972#0 -332200728#1 -332200728#0 -332200726 -378845730 -144113316#1 -144113316#0 -332200727#2 -332200727#0 -332473707#2 -332473707#1 -332473706#1 14013165#0 -6437798#3 -6437798#2 370823231#1 6397792#0 6397792#1 6399137#2 6399137#3 332473706#0" routeLength="1238.36"/>
    </vehicle>
    <vehicle id="denny_e2:denny_e3" depart="31.00" departPos="-5.00" arrivalPos="-5.00">
        <route edges="428087113#0 563752576#0 360390215 360390227 235037493 360390221#0 182891397#0 436163947#1" routeLength="473.89"/>
    </vehicle>
    <vehicle id="denny_e2:denny_w1" depart="32.00" departPos="-5.00" arrivalPos="5.00">
        <route edges="428087113#0 563752576#0 360390215 360390227 235037493 360390221#0 182891397#0 436163947#1 393047810 -460421473#2 -6430733#0 -460423542#0 -436163947#2" routeLength="746.12"/>
    </vehicle>
    <vehicle id="denny_e2:denny_w2" depart="33.00" departPos="-5.00" arrivalPos="5.00">
        <route edges="428087113#0 240455065#1 gneE31 gneE30 -gneE32 -240455065#1 -240455065#1.30 -428087113#1" routeLength="146.54"/>
    </vehicle>
    <vehicle id="denny_e2:denny_w3" depart="34.00" departPos="-5.00" arrivalPos="5.00">
        <route edges="428087113#0 240455065#1 -gneE15 240455064#2 240455064#3 240455064#4 -620698424 -548492030#2 -548492030#1 -338863385#4 -338863385#2 -338863386#2 -490208227#1 -537700723#1 -332200723 -524878319#3 -524878319#1 -332200724#2 -242288219#1 -332200722 -332200725#2 -332200725#1 -332200725#0 -332597972#3 -332597972#2 -332597972#1 -332597972#0 -332200728#1 -332200728#0 -332200726 -378845730 -144113316#1 -144113316#0 -332200727#2 -332200727#0 -332473707#2 -332473707#1 -332473706#1" routeLength="1030.01"/>
    </vehicle>
    <vehicle id="denny_e2:yesler_e1" depart="35.00" departPos="-5.00" arrivalPos="5.00">
        <route edges="428087113#0 563752576#0 360390215 360390227 246234860#0 -6433848#3 -6433848#1 4755219#0 5130429 622519710 96260967 428230605#0 22927970#0 333212250#1 333212250#3 gneE278 370819917#1 gneE269 gneE269.20 gneE272 gneE272.65 gneE64 gneE489 gneE488 gneE76 gneE50" routeLength="2189.40"/>
    </vehicle>
    <vehicle id="denny_e2:yesler_e2" depart="36.00" departPos="-5.00" arrivalPos="5.00">
        <route edges="428087113#0 563752576#0 360390215 360390227 246234860#0 -6433848#3 -6433848#1 4755219#0 5130429 622519710 96260967 428230605#0 428230605#1 428230603#0 gneE200 gneE200.41 621671478#0 621671478#1 240874288 gneE142 gneE355" routeLength="2274.35"/>
    </vehicle>
    <vehicle id="denny_e2:yesler_w1" depart="37.00" departPos="-5.00" arrivalPos="-5.00">
        <route edges="428087113#0 563752576#0 360390215 360390227 246234860#0 -6433848#3 -6433848#1 4755219#0 5130429 622519710 96260967 428230605#0 428230605#1 428230603#0 gneE200 gneE200.41 240874272 240874272.52 gneE527 gneE528 51817330#5 -460419023#1 -333374597 -6344598#2 -6344598#1 -6344598#0 486841226 6456588#1 gneE354" routeLength="2708.50"/>
    </vehicle>
    <vehicle id="denny_e2:yesler_w2" depart="38.00" departPos="-5.00" arrivalPos="-5.00">
        <route edges="428087113#0 563752576#0 360390215 360390227 246234860#0 -6433848#3 -6433848#1 4755219#0 5130429 622519710 96260967 428230605#0 428230605#1 428230603#0 gneE200 gneE200.41 gneE198 gneE199 gneE195 gneE154 gneE152 gneE150 gneE245 gneE79 gneE49" routeLength="2226.05"/>
    </vehicle>
    <vehicle id="denny_e2:boren_se1" depart="39.00" departPos="-5.00" arrivalPos="-5.00">
        <route edges="428087113#0 240455065#1 gneE32 gneE33 240455063#2 240455063#3 240455063#4 240455063#5" routeLength="172.17"/>
    </vehicle>
    <vehicle id="denny_e2:boren_nw3" depart="40.00" departPos="-5.00" arrivalPos="5.00">
        <route edges="428087113#0 563752576#0 360390215 gneE754 gneE750 6432745#4 500805367#0 -240455063#5" routeLength="271.16"/>
    </vehicle>
    <vehicle id="denny_e2:boren_se2" depart="41.00" departPos="-5.00" arrivalPos="5.00">
        <route edges="428087113#0 240455065#1 gneE32 gneE33 240455063#2 240455063#3 240455063#4 240455063#5 240457596#1 240457597#0 428237358#0 428237322#0 428237329#0 428237339#0 428237354#0 37551504 428230978#0 428231010#0" routeLength="546.95"/>
    </vehicle>
    <vehicle id="denny_e2:boren_nw2" depart="42.00" departPos="-5.00" arrivalPos="-5.00">
        <route edges="428087113#0 240455065#1 gneE32 gneE33 240455063#2 240455063#3 240455063#4 240455063#5 240457596#1 240457597#0 428237358#0 428237322#0 428237329#0 428237339#0 428237354#0 37551504 428230978#0 428231010#0 532416980 532416974 -532416974 -532416980 -428231010#1" routeLength="804.56"/>
    </vehicle>
    <vehicle id="denny_e2:boren_se3" depart="43.00" departPos="-5.00" arrivalPos="-5.00">
        <route edges="428087113#0 240455065#1 gneE32 gneE33 240455063#2 240455063#3 240455063#4 240455063#5 240457596#1 240457597#0 428237358#0 428237322#0 428237329#0 428237339#0 428237354#0 37551504 428230978#0 428231010#0 532416980 332187358 532416982 gneE544 gneE549 586787209#0 586787209#1 428230982#0" routeLength="938.76"/>
    </vehicle>
    <vehicle id="denny_e2:boren_nw1" depart="44.00" departPos="-5.00" arrivalPos="5.00">
        <route edges="428087113#0 240455065#1 gneE32 gneE33 240455063#2 240455063#3 240455063#4 240455063#5 240457596#1 240457597#0 428237358#0 428237322#0 428237329#0 428237339#0 428237354#0 37551504 428230978#0 428231010#0 532416980 332187358 532416982 gneE544 gneE553 -165042063#11 -165042063#10 -165042063#9 -532166311#12 -532166311#11 -532166311#10 -428227803 -428227860 -428227828 -428227842 -428227822#1 -428230982#0" routeLength="1110.88"/>
    </vehicle>
    <vehicle id="denny_e2:pine_e1" depart="45.00" departPos="-5.00" arrivalPos="5.00">
        <route edges="428087113#0 240455065#1 gneE32 gneE33 240455063#2 240455063#3 240455063#4 240455063#5 240457596#1 240457597#0 428237358#0 428237322#0 428237329#0 428237339#0 -37551507#1" routeLength="496.98"/>
    </vehicle>
    <vehicle id="denny_e2:pine_w2" depart="46.00" departPos="-5.00" arrivalPos="-5.00">
        <route edges="428087113#0 240455065#1 gneE32 gneE33 240455063#2 240455063#3 240455063#4 240455063#5 240457596#1 240457597#0 428237358#0 428237322#0 428237329#0 428237339#0 -37551507#1 -492812737 492812737 37551507#0" routeLength="574.08"/>
    </vehicle>
    <vehicle id="denny_e2:pine_w1" depart="47.00" departPos="-5.00" arrivalPos="5.00">
        <route edges="428087113#0 563752576#0 360390215 360390227 235037493 360390221#0 182891397#0 436163947#1 393047810 393047811 6474762#0 6474762#1 6474762#2 6474762#3 6474762#4 658284000 -428246437 -265352910 -332601013#0 gneE582 -428246441#1" routeLength="1150.41"/>
    </vehicle>
    <vehicle id="denny_e2:pine_e2" depart="48.00" departPos="-5.00" arrivalPos="5.00">
        <route edges="428087113#0 240455065#1 gneE32 gneE33 240455063#2 240455063#3 240455063#4 240455063#5 240457596#1 240457597#0 428237358#0 428237322#0 428237329#0 428237339#0 -37551507#1 -492812737 -8111111#3 -8111111#2 -8111111#1 -8111111#0 -460423539#2 6415868#0 6415868#1 6415868#2 6415868#3 6415868#5 6415868#6 6415868#7 428246441#0 428246441#1" routeLength="983.07"/>
    </vehicle>
    <vehicle id="denny_e2:pine_w3" depart="49.00" departPos="-5.00" arrivalPos="-5.00">
        <route edges="428087113#0 240455065#1 gneE31 -22927963#10 -22927963#9 -22927963#6 -22927963#5 240576145#3 621426646#0 621426646#2 428087142#0 428087142#2 585970945#0 585970945#2 585970945#3 512250646#0 512250646#2 512250646#4 512250646#5 428248101#0 465797042#0 465797042#0.53 8111110#0 8111110#0.68" routeLength="773.65"/>
    </vehicle>
    <vehicle id="denny_e2:stewart_w1" depart="50.00" departPos="-5.00" arrivalPos="-5.00">
        <route edges="428087113#0 240455065#1 gneE31 -22927963#10 -22927963#9 -22927963#6 -22927963#5 240576145#3 621426646#0 621426646#2 428087142#0 428087142#2 585970945#0 585970945#2 585970945#3 512250646#0 512250646#2 512250646#4 512250646#5 371267131#0 371267131#2" routeLength="641.34"/>
    </vehicle>
    <vehicle id="denny_e2:seven_n1" depart="51.00" departPos="-5.00" arrivalPos="-5.00">
        <route edges="428087113#0 240455065#1 -gneE15 240455064#2 240455064#3 240455064#4 -620698424 -548492030#2 -548492030#1 -338863385#4 -338863385#2 -338863386#2 -490208227#1 -537700723#1 -332200723 -524878319#3 -524878319#1 -332200724#2 -242288219#1 4794449#1 4794449#3 4794449#4 4794449#4.96 52840083 52840083.93" routeLength="878.85"/>
    </vehicle>
    <vehicle id="denny_e2:seven_s1" depart="52.00" departPos="-5.00" arrivalPos="5.00">
        <route edges="428087113#0 -6496961#2 -391510267#0 -428087139#1 -428087135#0 -391510270 391514416#0 428087140#2 428341106#0 -42005979#13 -42005979#10 -42005979#8 -42005979#6 -42005979#3 -42005979#1 -422748212#9 -422748212#7 -422748212#6 -422748212#5 -422748212#4 -422748212#3 -422748212#2 -6457582#3 -6457582#1 -6457582#0 367069126" routeLength="895.34"/>
    </vehicle>
    <vehicle id="denny_e2:first_se1" depart="53.00" departPos="-5.00" arrivalPos="5.00">
        <route edges="428087113#0 240455065#1 -gneE15 240455064#2 240455064#3 240455064#4 -620698424 -548492030#2 -548492030#1 -338863385#4 -338863385#2 -338863386#2 -490208227#1 -537700723#1 -332200723 -524878319#3 -524878319#1 -332200724#2 -242288219#1 -332200722 -332200725#2 -332200725#1 -332200725#0 -332597972#3 -332597972#2 -332597972#1 -332597972#0 -332200728#1 -332200728#0 -460419020#3 -460419020#2 -460419020#1 -460419020#0 -6405767#8 -6405767#7 -6405767#6 -6405767#5 -351500650#4" routeLength="1038.80"/>
    </vehicle>
    <vehicle id="denny_e2:first_nw3" depart="54.00" departPos="-5.00" arrivalPos="-5.00">
        <route edges="428087113#0 240455065#1 -gneE15 240455064#2 240455064#3 240455064#4 -620698424 -548492030#2 -548492030#1 -338863385#4 -338863385#2 -338863386#2 -490208227#1 -537700723#1 -332200723 -524878319#3 -524878319#1 -332200724#2 -242288219#1 22927959#0 22927959#0.43 458058813#1 206883228#0 206883228#1 206883228#2 370785082#0 370785082#1 351500651#0 351500651#1 351500650#0 351500650#1 351500650#2 351500650#3 351500650#4" routeLength="1102.84"/>
    </vehicle>
    <vehicle id="denny_e2:first_se2" depart="55.00" departPos="-5.00" arrivalPos="5.00">
        <route edges="428087113#0 240455065#1 gneE31 -22927963#10 -22927963#9 -22927963#6 -22927963#5 240576145#3 621426646#0 621426646#2 428087142#0 428087142#2 585970945#0 585970945#2 585970945#3 512250646#0 512250646#2 512250646#4 512250646#5 371267131#0 371267131#2 98243676#0 130308598#0 500805371#0 130308599#0 130308599#1 500805370#0 240455510#1 -428243129#2" routeLength="856.21"/>
    </vehicle>
    <vehicle id="denny_e2:first_nw2" depart="56.00" departPos="-5.00" arrivalPos="-5.00">
        <route edges="428087113#0 240455065#1 gneE31 -22927963#10 -22927963#9 -22927963#6 -22927963#5 240576145#3 621426646#0 621426646#2 428087142#0 428087142#2 585970945#0 585970945#2 585970945#3 512250646#0 512250646#2 512250646#4 512250646#5 371267131#0 371267131#2 98243676#0 130308598#0 500805371#0 130308599#0 130308599#1 428243144#0 428243133#0 240704055#0 340164240 428243129#0" routeLength="920.14"/>
    </vehicle>
    <vehicle id="denny_e2:first_se3" depart="57.00" departPos="-5.00" arrivalPos="5.00">
        <route edges="428087113#0 563752576#0 360390215 360390227 246234860#0 -6433848#3 -6433848#1 4755219#0 5130429 96260970 96260963 426055964 620595956#0 679642593#0 679642593#2 296070145#2 296070145#2.44 620595955#0 620595955#3 532243336#0 532243336#2 43150458#0 543950129#0 -462696736#2 -534545516#1 -462696717#1 -610573957#1" routeLength="1854.27"/>