<?xml version="1.0" ?>
<routes>
  <trip id="denny_e1:denny_e2" depart="1" from="332473706#0" to="428087113#0" departPos="-5" arrivalPos="-5"/>
  <trip id="denny_e1:denny_e3" depart="2" from="332473706#0" to="436163947#1" departPos="-5" arrivalPos="-5"/>
  <trip id="denny_e1:denny_w1" depart="3" from="332473706#0" to="-436163947#2" departPos="-5" arrivalPos="5"/>
  <trip id="denny_e1:denny_w2" depart="4" from="332473706#0" to="-428087113#1" departPos="-5" arrivalPos="5"/>
  <trip id="denny_e1:denny_w3" depart="5" from="332473706#0" to="-332473706#1" departPos="-5" arrivalPos="5"/>
  <trip id="denny_e1:yesler_e1" depart="6" from="332473706#0" to="gneE50" departPos="-5" arrivalPos="5"/>
  <trip id="denny_e1:yesler_e2" depart="7" from="332473706#0" to="gneE355" departPos="-5" arrivalPos="5"/>
  <trip id="denny_e1:yesler_w1" depart="8" from="332473706#0" to="gneE354" departPos="-5" arrivalPos="-5"/>
  <trip id="denny_e1:yesler_w2" depart="9" from="332473706#0" to="gneE49" departPos="-5" arrivalPos="-5"/>
  <trip id="denny_e1:boren_se1" depart="10" from="332473706#0" to="240455063#5" departPos="-5" arrivalPos="-5"/>
  <trip id="denny_e1:boren_nw3" depart="11" from="332473706#0" to="-240455063#5" departPos="-5" arrivalPos="5"/>
  <trip id="denny_e1:boren_se2" depart="12" from="332473706#0" to="428231010#0" departPos="-5" arrivalPos="5"/>
  <trip id="denny_e1:boren_nw2" depart="13" from="332473706#0" to="-428231010#1" departPos="-5" arrivalPos="-5"/>
  <trip id="denny_e1:boren_se3" depart="14" from="332473706#0" to="428230982#0" departPos="-5" arrivalPos="-5"/>
  <trip id="denny_e1:boren_nw1" depart="15" from="332473706#0" to="-428230982#0" departPos="-5" arrivalPos="5"/>
  <trip id="denny_e1:pine_e1" depart="16" from="332473706#0" to="-37551507#1" departPos="-5" arrivalPos="5"/>
  <trip id="denny_e1:pine_w2" depart="17" from="332473706#0" to="37551507#0" departPos="-5" arrivalPos="-5"/>
  <trip id="denny_e1:pine_w1" depart="18" from="332473706#0" to="-428246441#1" departPos="-5" arrivalPos="5"/>
  <trip id="denny_e1:pine_e2" depart="19" from="332473706#0" to="428246441#1" departPos="-5" arrivalPos="5"/>
  <trip id="denny_e1:pine_w3" depart="20" from="332473706#0" to="8111110#0.68" departPos="-5" arrivalPos="-5"/>
  <trip id="denny_e1:stewart_w1" depart="21" from="332473706#0" to="371267131#2" departPos="-5" arrivalPos="-5"/>
  <trip id="denny_e1:seven_n1" depart="22" from="332473706#0" to="52840083.93" departPos="-5" arrivalPos="-5"/>
  <trip id="denny_e1:seven_s1" depart="23" from="332473706#0" to="367069126" departPos="-5" arrivalPos="5"/>
  <trip id="denny_e1:first_se1" depart="24" from="332473706#0" to="-351500650#4" departPos="-5" arrivalPos="5"/>
  <trip id="denny_e1:first_nw3" depart="25" from="332473706#0" to="351500650#4" departPos="-5" arrivalPos="-5"/>
  <trip id="denny_e1:first_se2" depart="26" from="332473706#0" to="-428243129#2" departPos="-5" arrivalPos="5"/>
  <trip id="denny_e1:first_nw2" depart="27" from="332473706#0" to="428243129#0" departPos="-5" arrivalPos="-5"/>
  <trip id="denny_e1:first_se3" depart="28" from="332473706#0" to="-610573957#1" departPos="-5" arrivalPos="5"/>
  <trip id="denny_e1:first_nw1" depart="29" from="332473706#0" to="610573957#1" departPos="-5" arrivalPos="-5"/>
  <trip id="denny_e2:denny_e1" depart="30" from="428087113#0" to="332473706#0" departPos="-5" arrivalPos="-5"/>
  <trip id="denny_e2:denny_e3" depart="31" from="428087113#0" to="436163947#1" departPos="-5" arrivalPos="-5"/>
  <trip id="denny_e2:denny_w1" depart="32" from="428087113#0" to="-436163947#2" departPos="-5" arrivalPos="5"/>
  <trip id="denny_e2:denny_w2" depart="33" from="428087113#0" to="-428087113#1" departPos="-5" arrivalPos="5"/>
  <trip id="denny_e2:denny_w3" depart="34" from="428087113#0" to="-332473706#1" departPos="-5" arrivalPos="5"/>
  <trip id="denny_e2:yesler_e1" depart="35" from="428087113#0" to="gneE50" departPos="-5" arrivalPos="5"/>
  <trip id="denny_e2:yesler_e2" depart="36" from="428087113#0" to="gneE355" departPos="-5" arrivalPos="5"/>
  <trip id="denny_e2:yesler_w1" depart="37" from="428087113#0" to="gneE354" departPos="-5" arrivalPos="-5"/>
  <trip id="denny_e2:yesler_w2" depart="38" from="428087113#0" to="gneE49" departPos="-5" arrivalPos="-5"/>
  <trip id="denny_e2:boren_se1" depart="39" from="428087113#0" to="240455063#5" departPos="-5" arrivalPos="-5"/>
  <trip id="denny_e2:boren_nw3" depart="40" from="428087113#0" to="-240455063#5" departPos="-5" arrivalPos="5"/>
  <trip id="denny_e2:boren_se2" depart="41" from="428087113#0" to="428231010#0" departPos="-5" arrivalPos="5"/>
  <trip id="denny_e2:boren_nw2" depart="42" from="428087113#0" to="-428231010#1" departPos="-5" arrivalPos="-5"/>
  <trip id="denny_e2:boren_se3" depart="43" from="428087113#0" to="428230982#0" departPos="-5" arrivalPos="-5"/>
  <trip id="denny_e2:boren_nw1" depart="44" from="428087113#0" to="-428230982#0" departPos="-5" arrivalPos="5"/>
  <trip id="denny_e2:pine_e1" depart="45" from="428087113#0" to="-37551507#1" departPos="-5" arrivalPos="5"/>
  <trip id="denny_e2:pine_w2" depart="46" from="428087113#0" to="37551507#0" departPos="-5" arrivalPos="-5"/>
  <trip id="denny_e2:pine_w1" depart="47" from="428087113#0" to="-428246441#1" departPos="-5" arrivalPos="5"/>
  <trip id="denny_e2:pine_e2" depart="48" from="428087113#0" to="428246441#1" departPos="-5" arrivalPos="5"/>
  <trip id="denny_e2:pine_w3" depart="49" from="428087113#0" to="8111110#0.68" departPos="-5" arrivalPos="-5"/>
  <trip id="denny_e2:stewart_w1" depart="50" from="428087113#0" to="371267131#2" departPos="-5" arrivalPos="-5"/>
  <trip id="denny_e2:seven_n1" depart="51" from="428087113#0" to="52840083.93" departPos="-5" arrivalPos="-5"/>
  <trip id="denny_e2:seven_s1" depart="52" from="428087113#0" to="367069126" departPos="-5" arrivalPos="5"/>
  <trip id="denny_e2:first_se1" depart="53" from="428087113#0" to="-351500650#4" departPos="-5" arrivalPos="5"/>
  <trip id="denny_e2:first_nw3" depart="54" from="428087113#0" to="351500650#4" departPos="-5" arrivalPos="-5"/>
  <trip id="denny_e2:first_se2" depart="55" from="428087113#0" to="-428243129#2" departPos="-5" arrivalPos="5"/>
  <trip id="denny_e2:first_nw2" depart="56" from="428087113#0" to="428243129#0" departPos="-5" arrivalPos="-5"/>
  <trip id="denny_e2:first_se3" depart="57" from="428087113#0" to="-610573957#1" departPos="-5" arrivalPos="5"/>
  <trip id="denny_e2:first_nw1" depart="58" from="428087113#0" to="610573957#1" departPos="-5" arrivalPos="-5"/>
  <trip id="denny_e3:denny_e1" depart="59" from="436163947#1" to="332473706#0" departPos="-5" arrivalPos="-5"/>
  <trip id="denny_e3:denny_e2" depart="60" from="436163947#1" to="428087113#0" departPos="-5" arrivalPos="-5"/>
  <trip id="denny_e3:denny_w1" depart="61" from="436163947#1" to="-436163947#2" departPos="-5" arrivalPos="5"/>
  <trip id="denny_e3:denny_w2" depart="62" from="436163947#1" to="-428087113#1" departPos="-5" arrivalPos="5"/>
  <trip id="denny_e3:denny_w3" depart="63" from="436163947#1" to="-332473706#1" departPos="-5" arrivalPos="5"/>
  <trip id="denny_e3:yesler_e1" depart="64" from="436163947#1" to="gneE50" departPos="-5" arrivalPos="5"/>
  <trip id="denny_e3:yesler_e2" depart="65" from="436163947#1" to="gneE355" departPos="-5" arrivalPos="5"/>
  <trip id="denny_e3:yesler_w1" depart="66" from="436163947#1" to="gneE354" departPos="-5" arrivalPos="-5"/>
  <trip id="denny_e3:yesler_w2" depart="67" from="436163947#1" to="gneE49" departPos="-5" arrivalPos="-5"/>
  <trip id="denny_e3:boren_se1" depart="68" from="436163947#1" to="240455063#5" departPos="-5" arrivalPos="-5"/>
  <trip id="denny_e3:boren_nw3" depart="69" from="436163947#1" to="-240455063#5" departPos="-5" arrivalPos="5"/>
  <trip id="denny_e3:boren_se2" depart="70" from="436163947#1" to="428231010#0" departPos="-5" arrivalPos="5"/>
  <trip id="denny_e3:boren_nw2" depart="71" from="436163947#1" to="-428231010#1" departPos="-5" arrivalPos="-5"/>
  <trip id="denny_e3:boren_se3" depart="72" from="436163947#1" to="428230982#0" departPos="-5" arrivalPos="-5"/>
  <trip id="denny_e3:boren_nw1" depart="73" from="436163947#1" to="-428230982#0" departPos="-5" arrivalPos="5"/>
  <trip id="denny_e3:pine_e1" depart="74" from="436163947#1" to="-37551507#1" departPos="-5" arrivalPos="5"/>
  <trip id="denny_e3:pine_w2" depart="75" from="436163947#1" to="37551507#0" departPos="-5" arrivalPos="-5"/>
  <trip id="denny_e3:pine_w1" depart="76" from="436163947#1" to="-428246441#1" departPos="-5" arrivalPos="5"/>
  <trip id="denny_e3:pine_e2" depart="77" from="436163947#1" to="428246441#1" departPos="-5" arrivalPos="5"/>
  <trip id="denny_e3:pine_w3" depart="78" from="436163947#1" to="8111110#0.68" departPos="-5" arrivalPos="-5"/>
  <trip id="denny_e3:stewart_w1" depart="79" from="436163947#1" to="371267131#2" departPos="-5" arrivalPos="-5"/>
  <trip id="denny_e3:seven_n1" depart="80" from="436163947#1" to="52840083.93" departPos="-5" arrivalPos="-5"/>
  <trip id="denny_e3:seven_s1" depart="81" from="436163947#1" to="367069126" departPos="-5" arrivalPos="5"/>
  <trip id="denny_e3:first_se1" depart="82" from="436163947#1" to="-351500650#4" departPos="-5" arrivalPos="5"/>
  <trip id="denny_e3:first_nw3" depart="83" from="436163947#1" to="351500650#4" departPos="-5" arrivalPos="-5"/>
  <trip id="denny_e3:first_se2" depart="84" from="436163947#1" to="-428243129#2" departPos="-5" arrivalPos="5"/>
  <trip id="denny_e3:first_nw2" depart="85" from="436163947#1" to="428243129#0" departPos="-5" arrivalPos="-5"/>
  <trip id="denny_e3:first_se3" depart="86" from="436163947#1" to="-610573957#1" departPos="-5" arrivalPos="5"/>
  <trip id="denny_e3:first_nw1" depart="87" from="436163947#1" to="610573957#1" departPos="-5" arrivalPos="-5"/>
  <trip id="denny_w1:denny_e1" depart="88" from="-436163947#2" to="332473706#0" departPos="5" arrivalPos="-5"/>
  <trip id="denny_w1:denny_e2" depart="89" from="-436163947#2" to="428087113#0" departPos="5" arrivalPos="-5"/>
  <trip id="denny_w1:denny_e3" depart="90" from="-436163947#2" to="436163947#1" departPos="5" arrivalPos="-5"/>
  <trip id="denny_w1:denny_w2" depart="91" from="-436163947#2" to="-428087113#1" departPos="5" arrivalPos="5"/>
  <trip id="denny_w1:denny_w3" depart="92" from="-436163947#2" to="-332473706#1" departPos="5" arrivalPos="5"/>
  <trip id="denny_w1:yesler_e1" depart="93" from="-436163947#2" to="gneE50" departPos="5" arrivalPos="5"/>
  <trip id="denny_w1:yesler_e2" depart="94" from="-436163947#2" to="gneE355" departPos="5" arrivalPos="5"/>
  <trip id="denny_w1:yesler_w1" depart="95" from="-436163947#2" to="gneE354" departPos="5" arrivalPos="-5"/>
  <trip id="denny_w1:yesler_w2" depart="96" from="-436163947#2" to="gneE49" departPos="5" arrivalPos="-5"/>
  <trip id="denny_w1:boren_se1" depart="97" from="-436163947#2" to="240455063#5" departPos="5" arrivalPos="-5"/>
  <trip id="denny_w1:boren_nw3" depart="98" from="-436163947#2" to="-240455063#5" departPos="5" arrivalPos="5"/>
  <trip id="denny_w1:boren_se2" depart="99" from="-436163947#2" to="428231010#0" departPos="5" arrivalPos="5"/>
  <trip id="denny_w1:boren_nw2" depart="100" from="-436163947#2" to="-428231010#1" departPos="5" arrivalPos="-5"/>
  <trip id="denny_w1:boren_se3" depart="101" from="-436163947#2" to="428230982#0" departPos="5" arrivalPos="-5"/>
  <trip id="denny_w1:boren_nw1" depart="102" from="-436163947#2" to="-428230982#0" departPos="5" arrivalPos="5"/>
  <trip id="denny_w1:pine_e1" depart="103" from="-436163947#2" to="-37551507#1" departPos="5" arrivalPos="5"/>
  <trip id="denny_w1:pine_w2" depart="104" from="-436163947#2" to="37551507#0" departPos="5" arrivalPos="-5"/>
  <trip id="denny_w1:pine_w1" depart="105" from="-436163947#2" to="-428246441#1" departPos="5" arrivalPos="5"/>
  <trip id="denny_w1:pine_e2" depart="106" from="-436163947#2" to="428246441#1" departPos="5" arrivalPos="5"/>
  <trip id="denny_w1:pine_w3" depart="107" from="-436163947#2" to="8111110#0.68" departPos="5" arrivalPos="-5"/>
  <trip id="denny_w1:stewart_w1" depart="108" from="-436163947#2" to="371267131#2" departPos="5" arrivalPos="-5"/>
  <trip id="denny_w1:seven_n1" depart="109" from="-436163947#2" to="52840083.93" departPos="5" arrivalPos="-5"/>
  <trip id="denny_w1:seven_s1" depart="110" from="-436163947#2" to="367069126" departPos="5" arrivalPos="5"/>
  <trip id="denny_w1:first_se1" depart="111" from="-436163947#2" to="-351500650#4" departPos="5" arrivalPos="5"/>
  <trip id="denny_w1:first_nw3" depart="112" from="-436163947#2" to="351500650#4" departPos="5" arrivalPos="-5"/>
  <trip id="denny_w1:first_se2" depart="113" from="-436163947#2" to="-428243129#2" departPos="5" arrivalPos="5"/>
  <trip id="denny_w1:first_nw2" depart="114" from="-436163947#2" to="428243129#0" departPos="5" arrivalPos="-5"/>
  <trip id="denny_w1:first_se3" depart="115" from="-436163947#2" to="-610573957#1" departPos="5" arrivalPos="5"/>
  <trip id="denny_w1:first_nw1" depart="116" from="-436163947#2" to="610573957#1" departPos="5" arrivalPos="-5"/>
  <trip id="denny_w2:denny_e1" depart="117" from="-428087113#1" to="332473706#0" departPos="5" arrivalPos="-5"/>
  <trip id="denny_w2:denny_e2" depart="118" from="-428087113#1" to="428087113#0" departPos="5" arrivalPos="-5"/>
  <trip id="denny_w2:denny_e3" depart="119" from="-428087113#1" to="436163947#1" departPos="5" arrivalPos="-5"/>
  <trip id="denny_w2:denny_w1" depart="120" from="-428087113#1" to="-436163947#2" departPos="5" arrivalPos="5"/>
  <trip id="denny_w2:denny_w3" depart="121" from="-428087113#1" to="-332473706#1" departPos="5" arrivalPos="5"/>
  <trip id="denny_w2:yesler_e1" depart="122" from="-428087113#1" to="gneE50" departPos="5" arrivalPos="5"/>
  <trip id="denny_w2:yesler_e2" depart="123" from="-428087113#1" to="gneE355" departPos="5" arrivalPos="5"/>
  <trip id="denny_w2:yesler_w1" depart="124" from="-428087113#1" to="gneE354" departPos="5" arrivalPos="-5"/>
  <trip id="denny_w2:yesler_w2" depart="125" from="-428087113#1" to="gneE49" departPos="5" arrivalPos="-5"/>
  <trip id="denny_w2:boren_se1" depart="126" from="-428087113#1" to="240455063#5" departPos="5" arrivalPos="-5"/>
  <trip id="denny_w2:boren_nw3" depart="127" from="-428087113#1" to="-240455063#5" departPos="5" arrivalPos="5"/>
  <trip id="denny_w2:boren_se2" depart="128" from="-428087113#1" to="428231010#0" departPos="5" arrivalPos="5"/>
  <trip id="denny_w2:boren_nw2" depart="129" from="-428087113#1" to="-428231010#1" departPos="5" arrivalPos="-5"/>
  <trip id="denny_w2:boren_se3" depart="130" from="-428087113#1" to="428230982#0" departPos="5" arrivalPos="-5"/>
  <trip id="denny_w2:boren_nw1" depart="131" from="-428087113#1" to="-428230982#0" departPos="5" arrivalPos="5"/>
  <trip id="denny_w2:pine_e1" depart="132" from="-428087113#1" to="-37551507#1" departPos="5" arrivalPos="5"/>
  <trip id="denny_w2:pine_w2" depart="133" from="-428087113#1" to="37551507#0" departPos="5" arrivalPos="-5"/>
  <trip id="denny_w2:pine_w1" depart="134" from="-428087113#1" to="-428246441#1" departPos="5" arrivalPos="5"/>
  <trip id="denny_w2:pine_e2" depart="135" from="-428087113#1" to="428246441#1" departPos="5" arrivalPos="5"/>
  <trip id="denny_w2:pine_w3" depart="136" from="-428087113#1" to="8111110#0.68" departPos="5" arrivalPos="-5"/>
  <trip id="denny_w2:stewart_w1" depart="137" from="-428087113#1" to="371267131#2" departPos="5" arrivalPos="-5"/>
  <trip id="denny_w2:seven_n1" depart="138" from="-428087113#1" to="52840083.93" departPos="5" arrivalPos="-5"/>
  <trip id="denny_w2:seven_s1" depart="139" from="-428087113#1" to="367069126" departPos="5" arrivalPos="5"/>
  <trip id="denny_w2:first_se1" depart="140" from="-428087113#1" to="-351500650#4" departPos="5" arrivalPos="5"/>
  <trip id="denny_w2:first_nw3" depart="141" from="-428087113#1" to="351500650#4" departPos="5" arrivalPos="-5"/>
  <trip id="denny_w2:first_se2" depart="142" from="-428087113#1" to="-428243129#2" departPos="5" arrivalPos="5"/>
  <trip id="denny_w2:first_nw2" depart="143" from="-428087113#1" to="428243129#0" departPos="5" arrivalPos="-5"/>
  <trip id="denny_w2:first_se3" depart="144" from="-428087113#1" to="-610573957#1" departPos="5" arrivalPos="5"/>
  <trip id="denny_w2:first_nw1" depart="145" from="-428087113#1" to="610573957#1" departPos="5" arrivalPos="-5"/>
  <trip id="denny_w3:denny_e1" depart="146" from="-332473706#1" to="332473706#0" departPos="5" arrivalPos="-5"/>
  <trip id="denny_w3:denny_e2" depart="147" from="-332473706#1" to="428087113#0" departPos="5" arrivalPos="-5"/>
  <trip id="denny_w3:denny_e3" depart="148" from="-332473706#1" to="436163947#1" departPos="5" arrivalPos="-5"/>
  <trip id="denny_w3:denny_w1" depart="149" from="-332473706#1" to="-436163947#2" departPos="5" arrivalPos="5"/>
  <trip id="denny_w3:denny_w2" depart="150" from="-332473706#1" to="-428087113#1" departPos="5" arrivalPos="5"/>
  <trip id="denny_w3:yesler_e1" depart="151" from="-332473706#1" to="gneE50" departPos="5" arrivalPos="5"/>
  <trip id="denny_w3:yesler_e2" depart="152" from="-332473706#1" to="gneE355" departPos="5" arrivalPos="5"/>
  <trip id="denny_w3:yesler_w1" depart="153" from="-332473706#1" to="gneE354" departPos="5" arrivalPos="-5"/>
  <trip id="denny_w3:yesler_w2" depart="154" from="-332473706#1" to="gneE49" departPos="5" arrivalPos="-5"/>
  <trip id="denny_w3:boren_se1" depart="155" from="-332473706#1" to="240455063#5" departPos="5" arrivalPos="-5"/>
  <trip id="denny_w3:boren_nw3" depart="156" from="-332473706#1" to="-240455063#5" departPos="5" arrivalPos="5"/>
  <trip id="denny_w3:boren_se2" depart="157" from="-332473706#1" to="428231010#0" departPos="5" arrivalPos="5"/>
  <trip id="denny_w3:boren_nw2" depart="158" from="-332473706#1" to="-428231010#1" departPos="5" arrivalPos="-5"/>
  <trip id="denny_w3:boren_se3" depart="159" from="-332473706#1" to="428230982#0" departPos="5" arrivalPos="-5"/>
  <trip id="denny_w3:boren_nw1" depart="160" from="-332473706#1" to="-428230982#0" departPos="5" arrivalPos="5"/>
  <trip id="denny_w3:pine_e1" depart="161" from="-332473706#1" to="-37551507#1" departPos="5" arrivalPos="5"/>
  <trip id="denny_w3:pine_w2" depart="162" from="-332473706#1" to="37551507#0" departPos="5" arrivalPos="-5"/>
  <trip id="denny_w3:pine_w1" depart="163" from="-332473706#1" to="-428246441#1" departPos="5" arrivalPos="5"/>
  <trip id="denny_w3:pine_e2" depart="164" from="-332473706#1" to="428246441#1" departPos="5" arrivalPos="5"/>
  <trip id="denny_w3:pine_w3" depart="165" from="-332473706#1" to="8111110#0.68" departPos="5" arrivalPos="-5"/>
  <trip id="denny_w3:stewart_w1" depart="166" from="-332473706#1" to="371267131#2" departPos="5" arrivalPos="-5"/>
  <trip id="denny_w3:seven_n1" depart="167" from="-332473706#1" to="52840083.93" departPos="5" arrivalPos="-5"/>
  <trip id="denny_w3:seven_s1" depart="168" from="-332473706#1" to="367069126" departPos="5" arrivalPos="5"/>
  <trip id="denny_w3:first_se1" depart="169" from="-332473706#1" to="-351500650#4" departPos="5" arrivalPos="5"/>
  <trip id="denny_w3:first_nw3" depart="170" from="-332473706#1" to="351500650#4" departPos="5" arrivalPos="-5"/>
  <trip id="denny_w3:first_se2" depart="171" from="-332473706#1" to="-428243129#2" departPos="5" arrivalPos="5"/>
  <trip id="denny_w3:first_nw2" depart="172" from="-332473706#1" to="428243129#0" departPos="5" arrivalPos="-5"/>
  <trip id="denny_w3:first_se3" depart="173" from="-332473706#1" to="-610573957#1" departPos="5" arrivalPos="5"/>
  <trip id="denny_w3:first_nw1" depart="174" from="-332473706#1" to="610573957#1" departPos="5" arrivalPos="-5"/>
  <trip id="yesler_e1:denny_e1" depart="175" from="gneE50" to="332473706#0" departPos="5" arrivalPos="-5"/>
  <trip id="yesler_e1:denny_e2" depart="176" from="gneE50" to="428087113#0" departPos="5" arrivalPos="-5"/>
  <trip id="yesler_e1:denny_e3" depart="177" from="gneE50" to="436163947#1" departPos="5" arrivalPos="-5"/>
  <trip id="yesler_e1:denny_w1" depart="178" from="gneE50" to="-436163947#2" departPos="5" arrivalPos="5"/>
  <trip id="yesler_e1:denny_w2" depart="179" from="gneE50" to="-428087113#1" departPos="5" arrivalPos="5"/>
  <trip id="yesler_e1:denny_w3" depart="180" from="gneE50" to="-332473706#1" departPos="5" arrivalPos="5"/>
  <trip id="yesler_e1:yesler_e2" depart="181" from="gneE50" to="gneE355" departPos="5" arrivalPos="5"/>
  <trip id="yesler_e1:yesler_w1" depart="182" from="gneE50" to="gneE354" departPos="5" arrivalPos="-5"/>
  <trip id="yesler_e1:yesler_w2" depart="183" from="gneE50" to="gneE49" departPos="5" arrivalPos="-5"/>
  <trip id="yesler_e1:boren_se1" depart="184" from="gneE50" to="240455063#5" departPos="5" arrivalPos="-5"/>
  <trip id="yesler_e1:boren_nw3" depart="185" from="gneE50" to="-240455063#5" departPos="5" arrivalPos="5"/>
  <trip id="yesler_e1:boren_se2" depart="186" from="gneE50" to="428231010#0" departPos="5" arrivalPos="5"/>
  <trip id="yesler_e1:boren_nw2" depart="187" from="gneE50" to="-428231010#1" departPos="5" arrivalPos="-5"/>
  <trip id="yesler_e1:boren_se3" depart="188" from="gneE50" to="428230982#0" departPos="5" arrivalPos="-5"/>
  <trip id="yesler_e1:boren_nw1" depart="189" from="gneE50" to="-428230982#0" departPos="5" arrivalPos="5"/>
  <trip id="yesler_e1:pine_e1" depart="190" from="gneE50" to="-37551507#1" departPos="5" arrivalPos="5"/>
  <trip id="yesler_e1:pine_w2" depart="191" from="gneE50" to="37551507#0" departPos="5" arrivalPos="-5"/>
  <trip id="yesler_e1:pine_w1" depart="192" from="gneE50" to="-428246441#1" departPos="5" arrivalPos="5"/>
  <trip id="yesler_e1:pine_e2" depart="193" from="gneE50" to="428246441#1" departPos="5" arrivalPos="5"/>
  <trip id="yesler_e1:pine_w3" depart="194" from="gneE50" to="8111110#0.68" departPos="5" arrivalPos="-5"/>
  <trip id="yesler_e1:stewart_w1" depart="195" from="gneE50" to="371267131#2" departPos="5" arrivalPos="-5"/>
  <trip id="yesler_e1:seven_n1" depart="196" from="gneE50" to="52840083.93" departPos="5" arrivalPos="-5"/>
  <trip id="yesler_e1:seven_s1" depart="197" from="gneE50" to="367069126" departPos="5" arrivalPos="5"/>
  <trip id="yesler_e1:first_se1" depart="198" from="gneE50" to="-351500650#4" departPos="5" arrivalPos="5"/>
  <trip id="yesler_e1:first_nw3" depart="199" from="gneE50" to="351500650#4" departPos="5" arrivalPos="-5"/>
  <trip id="yesler_e1:first_se2" depart="200" from="gneE50" to="-428243129#2" departPos="5" arrivalPos="5"/>
  <trip id="yesler_e1:first_nw2" depart="201" from="gneE50" to="428243129#0" departPos="5" arrivalPos="-5"/>
  <trip id="yesler_e1:first_se3" depart="202" from="gneE50" to="-610573957#1" departPos="5" arrivalPos="5"/>
  <trip id="yesler_e1:first_nw1" depart="203" from="gneE50" to="610573957#1" departPos="5" arrivalPos="-5"/>
  <trip id="yesler_e2:denny_e1" depart="204" from="gneE355" to="332473706#0" departPos="5" arrivalPos="-5"/>
  <trip id="yesler_e2:denny_e2" depart="205" from="gneE355" to="428087113#0" departPos="5" arrivalPos="-5"/>
  <trip id="yesler_e2:denny_e3" depart="206" from="gneE355" to="436163947#1" departPos="5" arrivalPos="-5"/>
  <trip id="yesler_e2:denny_w1" depart="207" from="gneE355" to="-436163947#2" departPos="5" arrivalPos="5"/>
  <trip id="yesler_e2:denny_w2" depart="208" from="gneE355" to="-428087113#1" departPos="5" arrivalPos="5"/>
  <trip id="yesler_e2:denny_w3" depart="209" from="gneE355" to="-332473706#1" departPos="5" arrivalPos="5"/>
  <trip id="yesler_e2:yesler_e1" depart="210" from="gneE355" to="gneE50" departPos="5" arrivalPos="5"/>
  <trip id="yesler_e2:yesler_w1" depart="211" from="gneE355" to="gneE354" departPos="5" arrivalPos="-5"/>
  <trip id="yesler_e2:yesler_w2" depart="212" from="gneE355" to="gneE49" departPos="5" arrivalPos="-5"/>
  <trip id="yesler_e2:boren_se1" depart="213" from="gneE355" to="240455063#5" departPos="5" arrivalPos="-5"/>
  <trip id="yesler_e2:boren_nw3" depart="214" from="gneE355" to="-240455063#5" departPos="5" arrivalPos="5"/>
  <trip id="yesler_e2:boren_se2" depart="215" from="gneE355" to="428231010#0" departPos="5" arrivalPos="5"/>
  <trip id="yesler_e2:boren_nw2" depart="216" from="gneE355" to="-428231010#1" departPos="5" arrivalPos="-5"/>
  <trip id="yesler_e2:boren_se3" depart="217" from="gneE355" to="428230982#0" departPos="5" arrivalPos="-5"/>
  <trip id="yesler_e2:boren_nw1" depart="218" from="gneE355" to="-428230982#0" departPos="5" arrivalPos="5"/>
  <trip id="yesler_e2:pine_e1" depart="219" from="gneE355" to="-37551507#1" departPos="5" arrivalPos="5"/>
  <trip id="yesler_e2:pine_w2" depart="220" from="gneE355" to="37551507#0" departPos="5" arrivalPos="-5"/>
  <trip id="yesler_e2:pine_w1" depart="221" from="gneE355" to="-428246441#1" departPos="5" arrivalPos="5"/>
  <trip id="yesler_e2:pine_e2" depart="222" from="gneE355" to="428246441#1" departPos="5" arrivalPos="5"/>
  <trip id="yesler_e2:pine_w3" depart="223" from="gneE355" to="8111110#0.68" departPos="5" arrivalPos="-5"/>
  <trip id="yesler_e2:stewart_w1" depart="224" from="gneE355" to="371267131#2" departPos="5" arrivalPos="-5"/>
  <trip id="yesler_e2:seven_n1" depart="225" from="gneE355" to="52840083.93" departPos="5" arrivalPos="-5"/>
  <trip id="yesler_e2:seven_s1" depart="226" from="gneE355" to="367069126" departPos="5" arrivalPos="5"/>
  <trip id="yesler_e2:first_se1" depart="227" from="gneE355" to="-351500650#4" departPos="5" arrivalPos="5"/>
  <trip id="yesler_e2:first_nw3" depart="228" from="gneE355" to="351500650#4" departPos="5" arrivalPos="-5"/>
  <trip id="yesler_e2:first_se2" depart="229" from="gneE355" to="-428243129#2" departPos="5" arrivalPos="5"/>
  <trip id="yesler_e2:first_nw2" depart="230" from="gneE355" to="428243129#0" departPos="5" arrivalPos="-5"/>
  <trip id="yesler_e2:first_se3" depart="231" from="gneE355" to="-610573957#1" departPos="5" arrivalPos="5"/>
  <trip id="yesler_e2:first_nw1" depart="232" from="gneE355" to="610573957#1" departPos="5" arrivalPos="-5"/>
  <trip id="yesler_w1:denny_e1" depart="233" from="gneE354" to="332473706#0" departPos="-5" arrivalPos="-5"/>
  <trip id="yesler_w1:denny_e2" depart="234" from="gneE354" to="428087113#0" departPos="-5" arrivalPos="-5"/>
  <trip id="yesler_w1:denny_e3" depart="235" from="gneE354" to="436163947#1" departPos="-5" arrivalPos="-5"/>
  <trip id="yesler_w1:denny_w1" depart="236" from="gneE354" to="-436163947#2" departPos="-5" arrivalPos="5"/>
  <trip id="yesler_w1:denny_w2" depart="237" from="gneE354" to="-428087113#1" departPos="-5" arrivalPos="5"/>
  <trip id="yesler_w1:denny_w3" depart="238" from="gneE354" to="-332473706#1" departPos="-5" arrivalPos="5"/>
  <trip id="yesler_w1:yesler_e1" depart="239" from="gneE354" to="gneE50" departPos="-5" arrivalPos="5"/>
  <trip id="yesler_w1:yesler_e2" depart="240" from="gneE354" to="gneE355" departPos="-5" arrivalPos="5"/>
  <trip id="yesler_w1:yesler_w2" depart="241" from="gneE354" to="gneE49" departPos="-5" arrivalPos="-5"/>
  <trip id="yesler_w1:boren_se1" depart="242" from="gneE354" to="240455063#5" departPos="-5" arrivalPos="-5"/>
  <trip id="yesler_w1:boren_nw3" depart="243" from="gneE354" to="-240455063#5" departPos="-5" arrivalPos="5"/>
  <trip id="yesler_w1:boren_se2" depart="244" from="gneE354" to="428231010#0" departPos="-5" arrivalPos="5"/>
  <trip id="yesler_w1:boren_nw2" depart="245" from="gneE354" to="-428231010#1" departPos="-5" arrivalPos="-5"/>
  <trip id="yesler_w1:boren_se3" depart="246" from="gneE354" to="428230982#0" departPos="-5" arrivalPos="-5"/>
  <trip id="yesler_w1:boren_nw1" depart="247" from="gneE354" to="-428230982#0" departPos="-5" arrivalPos="5"/>
  <trip id="yesler_w1:pine_e1" depart="248" from="gneE354" to="-37551507#1" departPos="-5" arrivalPos="5"/>
  <trip id="yesler_w1:pine_w2" depart="249" from="gneE354" to="37551507#0" departPos="-5" arrivalPos="-5"/>
  <trip id="yesler_w1:pine_w1" depart="250" from="gneE354" to="-428246441#1" departPos="-5" arrivalPos="5"/>
  <trip id="yesler_w1:pine_e2" depart="251" from="gneE354" to="428246441#1" departPos="-5" arrivalPos="5"/>
  <trip id="yesler_w1:pine_w3" depart="252" from="gneE354" to="8111110#0.68" departPos="-5" arrivalPos="-5"/>
  <trip id="yesler_w1:stewart_w1" depart="253" from="gneE354" to="371267131#2" departPos="-5" arrivalPos="-5"/>
  <trip id="yesler_w1:seven_n1" depart="254" from="gneE354" to="52840083.93" departPos="-5" arrivalPos="-5"/>
  <trip id="yesler_w1:seven_s1" depart="255" from="gneE354" to="367069126" departPos="-5" arrivalPos="5"/>
  <trip id="yesler_w1:first_se1" depart="256" from="gneE354" to="-351500650#4" departPos="-5" arrivalPos="5"/>
  <trip id="yesler_w1:first_nw3" depart="257" from="gneE354" to="351500650#4" departPos="-5" arrivalPos="-5"/>
  <trip id="yesler_w1:first_se2" depart="258" from="gneE354" to="-428243129#2" departPos="-5" arrivalPos="5"/>
  <trip id="yesler_w1:first_nw2" depart="259" from="gneE354" to="428243129#0" departPos="-5" arrivalPos="-5"/>
  <trip id="yesler_w1:first_se3" depart="260" from="gneE354" to="-610573957#1" departPos="-5" arrivalPos="5"/>
  <trip id="yesler_w1:first_nw1" depart="261" from="gneE354" to="610573957#1" departPos="-5" arrivalPos="-5"/>
  <trip id="yesler_w2:denny_e1" depart="262" from="gneE49" to="332473706#0" departPos="-5" arrivalPos="-5"/>
  <trip id="yesler_w2:denny_e2" depart="263" from="gneE49" to="428087113#0" departPos="-5" arrivalPos="-5"/>
  <trip id="yesler_w2:denny_e3" depart="264" from="gneE49" to="436163947#1" departPos="-5" arrivalPos="-5"/>
  <trip id="yesler_w2:denny_w1" depart="265" from="gneE49" to="-436163947#2" departPos="-5" arrivalPos="5"/>
  <trip id="yesler_w2:denny_w2" depart="266" from="gneE49" to="-428087113#1" departPos="-5" arrivalPos="5"/>
  <trip id="yesler_w2:denny_w3" depart="267" from="gneE49" to="-332473706#1" departPos="-5" arrivalPos="5"/>
  <trip id="yesler_w2:yesler_e1" depart="268" from="gneE49" to="gneE50" departPos="-5" arrivalPos="5"/>
  <trip id="yesler_w2:yesler_e2" depart="269" from="gneE49" to="gneE355" departPos="-5" arrivalPos="5"/>
  <trip id="yesler_w2:yesler_w1" depart="270" from="gneE49" to="gneE354" departPos="-5" arrivalPos="-5"/>